# opt pm6

Title Card Required

0 1
 R                  0.00000000    0.00000000    0.00000000
 C                  0.35834721    1.44247212   -0.96209406
 C                  1.69714602    2.14262113   -0.66779044
 C                  2.38344226    1.30121008    0.47961361
 C                  1.40832366    0.17799986    0.77350688
 N                  0.35369242    0.27821084    0.00063292
 H                  0.29262738    1.08078719   -2.00410939
 H                  1.54468690    3.18459279   -0.35182499
 C                  3.71594698    0.71081676    0.00655951
 H                  4.44870179    1.49187770   -0.21554083
 H                  4.14467911    0.06089155    0.78073460
 H                  3.58946506    0.09733678   -0.89165438
 C                  2.58107056    2.14942716    1.74055210
 H                  2.97977659    1.53458641    2.55814736
 H                  3.28213566    2.97129520    1.56949303
 H                  1.63589338    2.57580553    2.09227997
 H                 -0.51015694    2.09973636   -0.77553892
 H                  2.33615938    2.17990507   -1.56173798

