# opt pbepbe/6-311g/auto

Title Card Required

0 1
 R                  0.00000000    0.00000000    0.00000000
 N                  0.37567000    0.00000000    0.00000000
 C                  1.46124306    0.65828880   -0.38006322
 C                  2.46281207    1.26563777   -0.73071631
 H                  3.30720219    1.77767384   -1.02634048

