# hf/3-21g geom=connectivity

Title Card Required

0 1
 C                 -0.92444584    1.08692546    0.00000000
 C                 -1.36349359   -0.35969015    0.00000000
 C                 -0.49476019   -1.38953315    0.00000000
 C                  0.92444584   -1.08692546    0.00000000
 C                  0.49476019    1.38953315    0.00000000
 C                 -2.01768359    1.90653573    0.00000000
 C                 -3.21287817    1.05884319    0.00000000
 C                  1.36349359    0.35969015    0.00000000
 C                  2.01768359   -1.90653573    0.00000000
 C                  3.21287817   -1.05884319    0.00000000
 C                  2.81477897    0.28686551    0.00000000
 S                  4.17411140    1.31056979    0.00000000
 C                  4.63019165   -1.23404754    0.00000000
 C                  5.28899243   -0.03481171    0.00000000
 C                 -2.81477897   -0.28686551    0.00000000
 S                 -4.17411140   -1.31056979    0.00000000
 C                 -4.63019165    1.23404754    0.00000000
 C                 -5.28899243    0.03481171    0.00000000
 Q                 -6.27628060   -0.12412875    0.00000000
 Q                  6.27628060    0.12412875    0.00000000
 R1                -5.06769422    2.13326470    0.00000000
 R1                 5.06769422   -2.13326470    0.00000000
 R2                -2.04413385    2.90618586    0.00000000
 R2                 2.04413385   -2.90618586    0.00000000
 R3                -0.77979348   -2.34805077    0.00000000
 R3                 0.77979348    2.34805077    0.00000000