# hf/3-21g

Title Card Required

0 1
 C                  4.82313939    2.21151266    0.00000000
 C                  5.81016157    1.19412937    0.00000000
 C                  5.42612502   -0.16253843    0.00000000
 C                  4.10867440   -0.44389345    0.00000000
 C                  3.14281083    0.55780706    0.00000000
 C                  3.45706422    1.86669408    0.00000000
 C                  3.48332011   -1.70996486    0.00000000
 C                  1.96226746   -1.46577350    0.00000000
 C                  0.94629033   -2.35334233    0.00000000
 C                 -0.36816406   -1.83968293    0.00000000
 C                  0.53306492    0.44506856    0.00000000
 C                  1.76018873   -0.10499839    0.00000000
 C                 -0.53306492   -0.44506856    0.00000000
 C                 -1.76018873    0.10499839    0.00000000
 C                  0.36816406    1.83968293    0.00000000
 C                 -3.14281083   -0.55780706    0.00000000
 C                 -1.96226746    1.46577350    0.00000000
 C                 -0.94629033    2.35334233    0.00000000
 C                 -4.10867440    0.44389345    0.00000000
 C                 -3.45706422   -1.86669408    0.00000000
 C                 -3.48332011    1.70996486    0.00000000
 C                 -5.42612502    0.16253843    0.00000000
 C                 -4.82313939   -2.21151266    0.00000000
 C                 -5.81016157   -1.19412937    0.00000000
 Q                  6.77976344    1.43881737    0.00000000
 Q                 -6.77976344   -1.43881737    0.00000000
 R1                 5.09627078    3.17348939    0.00000000
 R1                -5.09627078   -3.17348939    0.00000000
 R2                 6.10971481   -0.89240486    0.00000000
 R2                -6.10971481    0.89240486    0.00000000
 R3                 2.74586155    2.56968111    0.00000000
 R3                -2.74586155   -2.56968111    0.00000000
 R4                 3.94191707   -2.59860923    0.00000000
 R4                -3.94191707    2.59860923    0.00000000
 R5                 1.11818825   -3.33845710    0.00000000
 R5                -1.11818825    3.33845710    0.00000000
 R6                -1.15199969   -2.46065128    0.00000000
 R6                 1.15199969    2.46065128    0.00000000
