# opt pm6 geom=connectivity

Title Card Required

0 1
 C                  3.88259828   -0.70841971    0.00000000
 C                  3.12598097    0.52737413    0.00000000
 C                  3.78712462    1.77173061    0.00000000
 C                  5.17092137    1.78714691    0.00000000
 C                  5.91602569    0.57872541    0.00000000
 C                  5.29124983   -0.65747502    0.00000000
 C                  2.99205861   -1.84713436    0.00000000
 C                  1.75214971    0.17083646    0.00000000
 C                  1.70354602   -1.36387290    0.00000000
 C                  0.34371281   -1.77373096    0.00000000
 C                  0.45844513    0.63846495    0.00000000
 C                 -0.45844513   -0.63846495    0.00000000
 C                 -1.75214971   -0.17083646    0.00000000
 C                 -3.12598097   -0.52737413    0.00000000
 C                 -1.70354602    1.36387290    0.00000000
 C                 -0.34371281    1.77373096    0.00000000
 C                 -3.88259828    0.70841971    0.00000000
 C                 -3.78712462   -1.77173061    0.00000000
 C                 -2.99205861    1.84713436    0.00000000
 C                 -5.29124983    0.65747502    0.00000000
 C                 -5.17092137   -1.78714691    0.00000000
 C                 -5.91602569   -0.57872541    0.00000000
 Q                  6.91451912    0.63359692    0.00000000
 Q                 -6.91451912   -0.63359692    0.00000000
 R1                 5.66477432    2.65669234    0.00000000
 R1                -5.66477432   -2.65669234    0.00000000
 R2                 5.82058780   -1.50588608    0.00000000
 R2                -5.82058780    1.50588608    0.00000000
 R3                 3.25455908    2.61811938    0.00000000
 R3                -3.25455908   -2.61811938    0.00000000
 R4                 3.29111553   -2.80136963    0.00000000
 R4                -3.29111553    2.80136963    0.00000000
 R5                 0.02817830   -2.72264506    0.00000000
 R5                -0.02817830    2.72264506    0.00000000