# hf/3-21g geom=connectivity

Title Card Required

0 1
 C                  0.00000000   -0.61896745    0.00000000
 C                 -0.00000000    0.61896745    0.00000000
 C                  1.33453554   -1.39135742    0.03703322
 C                  2.51093022   -0.76261468   -0.41926592
 C                  1.36315168   -2.72967073    0.41429973
 C                  3.70100528   -1.49387852   -0.47987369
 H                  2.49349277    0.25522832   -0.71609464
 C                  2.56299314   -3.44571302    0.39217386
 H                  0.45529032   -3.20210452    0.73795279
 C                  3.72123489   -2.82908497   -0.05196031
 H                  4.57562903   -1.04316517   -0.84330017
 H                  2.58757262   -4.45638315    0.72175214
 C                 -1.33453554   -1.39135742   -0.03703322
 C                 -2.51093022   -0.76261468    0.41926592
 C                 -1.36315168   -2.72967073   -0.41429973
 C                 -3.70100528   -1.49387852    0.47987369
 H                 -2.49349277    0.25522832    0.71609464
 C                 -2.56299314   -3.44571302   -0.39217386
 H                 -0.45529032   -3.20210452   -0.73795279
 C                 -3.72106783   -2.82923765    0.05196397
 H                 -4.57553537   -1.04334859    0.84329395
 H                 -2.58733866   -4.45649351   -0.72173948
 C                 -1.33453554    1.39135742    0.03703322
 C                 -1.36315168    2.72967073    0.41429973
 C                 -2.51093022    0.76261468   -0.41926592
 C                 -2.56299314    3.44571302    0.39217386
 H                 -0.45529032    3.20210452    0.73795279
 C                 -3.70100528    1.49387852   -0.47987369
 H                 -2.49349277   -0.25522832   -0.71609464
 C                 -3.72123489    2.82908497   -0.05196031
 H                 -2.58757262    4.45638315    0.72175214
 H                 -4.57562903    1.04316517   -0.84330017
 C                  1.33453554    1.39135742   -0.03703322
 C                  2.51093022    0.76261468    0.41926592
 C                  1.36315168    2.72967073   -0.41429973
 C                  3.70100528    1.49387852    0.47987369
 H                  2.49349277   -0.25522832    0.71609464
 C                  2.56299314    3.44571302   -0.39217386
 H                  0.45529032    3.20210452   -0.73795279
 C                  3.72106783    2.82923765    0.05196397
 H                  4.57553537    1.04334859    0.84329395
 H                  2.58733866    4.45649351   -0.72173948
 Q                  4.58512584    3.33234411    0.06892362
 Q                 -4.58531359    3.33215601   -0.06891717
 Q                 -4.58512584   -3.33234411    0.06892362
 Q                  4.58531359   -3.33215601   -0.06891717
