# pbepbe/3-21g/auto geom

Title Card Required

0 1
 C                 -1.20808242    0.69748671    0.00000000
 C                 -1.20808242   -0.69748671    0.00000000
 C                  0.00000000   -1.39497342    0.00000000
 C                  1.20808242   -0.69748671    0.00000000
 C                  1.20808242    0.69748671    0.00000000
 C                  0.00000000    1.39497342    0.00000000
 C                 -2.54191897   -1.46757760    0.00000000
 C                 -3.66891081   -0.91049848   -0.60387408
 C                 -2.62297022   -2.72212071    0.60387408
 C                 -4.87667528   -1.60793890   -0.60400872
 C                 -3.83085358   -3.41935523    0.60400872
 C                 -4.95812765   -2.86257633    0.00000000
 C                 -2.54191897    1.46757760    0.00000000
 C                 -3.66891081    0.91049848    0.60387408
 C                 -2.62297022    2.72212072   -0.60387408
 C                 -4.87667528    1.60793890    0.60400872
 C                 -3.83085357    3.41935523   -0.60400873
 C                 -4.95812765    2.86257634   -0.00000000
 C                  0.00000000    2.93515520    0.00000000
 C                 -1.04594059    3.63261920    0.60387408
 C                  1.04594058    3.63261920   -0.60387408
 C                 -1.04582169    5.02729413    0.60400872
 C                  1.04582170    5.02729413   -0.60400873
 C                  0.00000000    5.72515267    0.00000000
 C                  2.54191897    1.46757760    0.00000000
 C                  2.62297022    2.72212071    0.60387408
 C                  3.66891081    0.91049848   -0.60387408
 C                  3.83085358    3.41935523    0.60400872
 C                  4.87667528    1.60793890   -0.60400872
 C                  4.95812765    2.86257633    0.00000000
 C                  2.54191897   -1.46757760    0.00000000
 C                  3.66891081   -0.91049848    0.60387408
 C                  2.62297022   -2.72212072   -0.60387408
 C                  4.87667528   -1.60793890    0.60400872
 C                  3.83085357   -3.41935523   -0.60400873
 C                  4.95812765   -2.86257634   -0.00000000
 C                  0.00000000   -2.93515520    0.00000000
 C                  1.04594059   -3.63261920    0.60387408
 C                 -1.04594058   -3.63261920   -0.60387408
 C                  1.04582169   -5.02729413    0.60400872
 C                 -1.04582170   -5.02729413   -0.60400873
 C                  0.00000000   -5.72515267    0.00000000
 Q                  5.82415306   -3.36257634   -0.00000000
 Q                  0.00000000   -6.72515266    0.00000000
 Q                 -5.82415305   -3.36257633    0.00000000
 Q                 -5.82415306    3.36257634   -0.00000000
 Q                  0.00000000    6.72515266    0.00000000
 Q                  5.82415305    3.36257633    0.00000000
 R1                -1.79633022    3.13263215    1.03622619
 R1                 1.81477391    3.12198367    1.03622618
 R1                 3.61110412   -0.01064847    1.03622619
 R1                 1.79633022   -3.13263215    1.03622619
 R1                -1.81477391   -3.12198367    1.03622618
 R1                -3.61110412    0.01064847    1.03622619
 R2                -1.79592599    5.52744730    1.03666373
 R2                 3.88894678    4.31904119    1.03666372
 R2                 5.68487278   -1.20840612    1.03666373
 R2                 1.79592599   -5.52744730    1.03666373
 R2                -3.88894678   -4.31904119    1.03666372
 R2                -5.68487278    1.20840612    1.03666373
 R3                -5.68487278   -1.20840611   -1.03666372
 R3                -3.88894678    4.31904119   -1.03666373
 R3                 1.79592600    5.52744730   -1.03666373
 R3                 5.68487278    1.20840611   -1.03666372
 R3                 3.88894678   -4.31904119   -1.03666373
 R3                -1.79592600   -5.52744730   -1.03666373
 R4                -1.81477390    3.12198367   -1.03622619
 R4                 1.79633021    3.13263214   -1.03622619
 R4                 3.61110413    0.01064846   -1.03622619
 R4                 1.81477390   -3.12198367   -1.03622619
 R4                -1.79633021   -3.13263214   -1.03622619
 R4                -3.61110413   -0.01064846   -1.03622619