# hf/3-21g geom=connectivity

Title Card Required

0 1
 C                  0.01435536    0.76964528    0.00000000
 C                  1.24228268    1.44758858    0.00000000
 C                  0.06816322    3.57275849    0.00000000
 C                 -1.15757456    2.89477603    0.00000000
 C                 -1.18453233    1.49416405    0.00000000
 C                 -0.01435536   -0.76964528    0.00000000
 C                  1.18453233   -1.49416405    0.00000000
 C                  1.15757456   -2.89477603    0.00000000
 C                 -0.06816322   -3.57275849    0.00000000
 C                 -1.24228268   -1.44758858    0.00000000
 N                 -1.26828366   -2.84813707    0.00000000
 N                  1.26828366    2.84813707    0.00000000
 Q                 -0.08828375   -4.57255605    0.00000000
 Q                  0.08828375    4.57255605    0.00000000
 R1                 2.01340217   -3.41203717    0.00000000
 R1                -2.01340217    3.41203717    0.00000000
 R2                -2.09802875   -0.93019252    0.00000000
 R2                 2.09802875    0.93019252    0.00000000
 R3                 2.06041169   -1.01163391    0.00000000
 R3                -2.06041169    1.01163391    0.00000000
