# hf/3-21g geom=connectivity

Title Card Required

0 1
 C                 -1.40918711    0.29912167    0.00000000
 C                 -0.88967910   -1.00393367    0.00000000
 C                  0.46980733   -1.26235676    0.00000000
 C                  1.40918711   -0.29912167    0.00000000
 C                  0.88967910    1.00393367    0.00000000
 C                 -0.46980733    1.26235676    0.00000000
 C                  0.61117141    3.37415407    0.00000000
 C                 -0.65045472    2.72237338    0.00000000
 C                  0.65045472   -2.72237338    0.00000000
 C                 -0.61117141   -3.37415407    0.00000000
 Q                  0.75349968    4.36392009    0.00000000
 Q                 -0.75349968   -4.36392009    0.00000000
 R1                 2.41228658   -0.42965338    0.00000000
 R1                -2.41228658    0.42965338    0.00000000
 R2                -1.53860806    3.17999327    0.00000000
 R2                 1.53860806   -3.17999327    0.00000000
 S                  1.62331890    2.40290934    0.00000000
 S                 -1.62331890   -2.40290934    0.00000000
