# hf/3-21g geom=connectivity

Title Card Required

0 1
 C                 -0.87029602    1.12743967    0.00000000
 C                 -0.56483982   -1.35745757    0.00000000
 C                  0.87029602   -1.12743967    0.00000000
 C                  1.38140041    0.28776588    0.00000000
 C                  0.56483982    1.35745757    0.00000000
 C                  1.91499417   -1.99743478    0.00000000
 C                  3.17404421   -1.22813939    0.00000000
 C                  4.49268637   -1.64666101    0.00000000
 C                  5.50502459   -0.66503895    0.00000000
 C                  5.19198873    0.69193730    0.00000000
 C                  3.85062369    1.12897300    0.00000000
 C                  2.85128806    0.17439767    0.00000000
 C                 -1.38140041   -0.28776588    0.00000000
 C                 -2.85128806   -0.17439767    0.00000000
 C                 -3.17404421    1.22813939    0.00000000
 C                 -3.85062369   -1.12897300    0.00000000
 C                 -1.91499417    1.99743478    0.00000000
 C                 -4.49268637    1.64666101    0.00000000
 C                 -5.19198873   -0.69193730    0.00000000
 C                 -5.50502459    0.66503895    0.00000000
 Q                 -6.46213434    0.95476456    0.00000000
 Q                  6.46213434   -0.95476456    0.00000000
 R1                -5.92480194   -1.37236717    0.00000000
 R1                 5.92480194    1.37236717    0.00000000
 R2                -4.73001653    2.61809005    0.00000000
 R2                 4.73001653   -2.61809005    0.00000000
 R3                -3.63739739   -2.10597583    0.00000000
 R3                 3.63739739    2.10597583    0.00000000
 R4                -1.88839604    2.99708099    0.00000000
 R4                 1.88839604   -2.99708099    0.00000000
 R5                -0.89627941   -2.30093401    0.00000000
 R5                 0.89627941    2.30093401    0.00000000