# opt pbepbe/3-21g/auto

Title Card Required

0 1
 C                  2.02631161    1.50292373    0.00000000
 C                  0.55162113   -0.44919183    0.00000000
 C                 -0.55162113    0.44919183    0.00000000
 C                 -0.33468853    1.86695230    0.00000000
 C                  0.93292441    2.39555200    0.00000000
 C                  0.33468853   -1.86695230    0.00000000
 C                 -1.86939626   -0.11202071    0.00000000
 C                 -0.93292441   -2.39555200    0.00000000
 C                  1.86939626    0.11202071    0.00000000
 C                  3.14303253   -0.58869685    0.00000000
 C                  4.21578693    0.23917098    0.00000000
 C                 -2.02631161   -1.50292373    0.00000000
 C                 -4.21578693   -0.23917098    0.00000000
 S                  3.71907445    1.91860370    0.00000000
 S                 -3.71907445   -1.91860370    0.00000000
 C                 -3.14303253    0.58869685    0.00000000
 Q                 -5.18676439    0.00000000    0.00000000
 Q                  5.18676439   -0.00000000    0.00000000
 R1                 3.18775891   -1.58769613    0.00000000
 R1                -3.18775891    1.58769613    0.00000000
 R2                -1.13345468    2.46859391    0.00000000
 R2                 1.13345468   -2.46859391    0.00000000
 R3                 1.08916397    3.38327119    0.00000000
 R3                -1.08916397   -3.38327119    0.00000000
