# pbepbe/3-21g/auto geom=connectivity

Title Card Required

0 1
 C                  1.28909077    0.64072210    0.00000000
 C                  2.56569262    1.22060271    0.00000000
 C                  2.70182770    2.61845119    0.00000000
 C                  1.55960298    3.43020633    0.00000000
 C                  0.15052410    1.46188829    0.00000000
 C                 -1.12948205    0.88885036    0.00000000
 C                  0.29258617    2.85119782    0.00000000
 C                 -2.26323001    1.71475694    0.00000000
 C                 -0.83163290    3.67597754    0.00000000
 C                 -2.11556529    3.11300387    0.00000000
 C                  1.68806036    4.96683865    0.00000000
 C                 -0.64435536    5.20490041    0.00000000
 O                  2.82759961    5.49866970    0.00000000
 O                 -1.65247189    5.95934030    0.00000000
 C                  1.12948205   -0.88885036    0.00000000
 C                  2.26323001   -1.71475694    0.00000000
 C                 -0.15052410   -1.46188829    0.00000000
 C                  2.11556529   -3.11300387    0.00000000
 C                 -1.28909077   -0.64072210    0.00000000
 C                 -0.29258617   -2.85119782    0.00000000
 C                  0.83163290   -3.67597754    0.00000000
 C                 -2.56569262   -1.22060271    0.00000000
 C                 -1.55960298   -3.43020633    0.00000000
 C                  0.64435536   -5.20490041    0.00000000
 C                 -2.70182770   -2.61845119    0.00000000
 C                 -1.68806036   -4.96683865    0.00000000
 O                  1.65247189   -5.95934030    0.00000000
 O                 -2.82759961   -5.49866970    0.00000000
 Q                  0.58996455    5.74105138    0.00000000
 Q                 -0.58996455   -5.74105138    0.00000000
 R1                 3.61324300    3.03155658    0.00000000
 R1                -3.61324300   -3.03155658    0.00000000
 R2                -2.92268182    3.70283893    0.00000000
 R2                 2.92268182   -3.70283893    0.00000000
 R3                 3.17796645   -1.31159667    0.00000000
 R3                -3.17796645    1.31159667    0.00000000
 R4                 3.37899096    0.63843027    0.00000000
 R4                -3.37899096   -0.63843027    0.00000000
