%chk=C:\Users\lipel\OneDrive\Documentos\GitHub\pyCOFBuilder\src\pycofbuilder\data\core\S4\CuBTC.chk
# opt pm6 geom=connectivity

Title Card Required

0 1
 Cu                -0.00000000    0.00000000    1.26544088
 O                  1.33213986    1.33213986    1.11473035
 O                  1.33213986    1.33213986   -1.11473035
 H                  2.11519370    2.11519370    0.00000000
 O                 -1.33213986   -1.33213986    1.11473035
 O                 -1.33213986   -1.33213986   -1.11473035
 H                 -2.11519370   -2.11519370    0.00000000
 O                  1.33213986   -1.33213986    1.11473035
 O                  1.33213986   -1.33213986   -1.11473035
 H                  2.11519370   -2.11519370    0.00000000
 O                 -1.33213986    1.33213986    1.11473035
 O                 -1.33213986    1.33213986   -1.11473035
 H                 -2.11519370    2.11519370    0.00000000
 Cu                -0.00000000    0.00000000   -1.26544088
 C                 -1.76150897   -1.76150897    0.00000000
 C                  1.76150897   -1.76150897    0.00000000
 C                  1.76150897    1.76150897    0.00000000
 C                 -1.76150897    1.76150897    0.00000000

 1 2 1.0 5 1.0 8 1.0 11 1.0 14 1.0
 2 17 1.5
 3 14 1.0 17 1.5
 4 17 1.0
 5 15 1.5
 6 14 1.0 15 1.5
 7 15 1.0
 8 16 1.5
 9 14 1.0 16 1.5
 10 16 1.0
 11 18 1.5
 12 14 1.0 18 1.5
 13 18 1.0
 14
 15
 16
 17
 18

