# opt pm6 geom=connectivity

phthalocyanine tetra(acetonide)

0 1
 C                  0.61273721    3.49582112   -0.04312993
 C                 -0.09659738    4.85255043   -0.03802210
 C                 -1.57009079    3.09658098   -0.03235245
 N                 -0.33692921    2.52206901   -0.03879786
 C                  2.51422687    2.16626632   -0.05331670
 N                  1.92715646    0.93407814   -0.04745525
 C                  4.28323664    0.72485306   -0.06469916
 C                  2.93150161    0.00832748   -0.05300514
 C                 -2.86838202    1.17587065   -0.02656924
 N                 -1.87490019    0.23931970   -0.02670744
 C                 -3.99484945   -0.80842505   -0.02420533
 C                 -2.47585661   -0.98684532   -0.02468982
 C                  1.61009281   -1.88746339   -0.03803505
 N                  0.38200603   -1.30961240   -0.04170455
 C                  0.09554545   -3.51310717   -0.01215041
 C                 -0.56127308   -2.28495996   -0.02595614
 N                 -2.72105305    2.50488926   -0.02821690
 N                  1.89853490    3.35280167   -0.05081268
 N                  2.79983733   -1.27758966   -0.04890790
 N                 -1.89000383   -2.13891436   -0.02280895
 C                  4.03520547    2.00423605   -0.06329311
 C                  5.03894882    2.96922199   -0.06978383
 C                  5.57551421    0.20554838   -0.07503574
 C                  6.37393110    2.51703168   -0.07796282
 C                  6.64435031    1.12508413   -0.08193412
 C                 -1.38637521    4.61731928   -0.03133894
 C                 -2.33765284    5.63368200   -0.02486426
 C                  0.43570833    6.13856063   -0.03978799
 C                 -1.86745314    6.96276335   -0.02539233
 C                 -0.47199126    7.21671398   -0.03249545
 C                 -4.22802413    0.47379220   -0.02367880
 C                 -5.51418682    1.00789471   -0.02084644
 C                 -6.59337227    0.10064636   -0.01813212
 C                 -5.00967588   -1.76179791   -0.02434108
 C                 -6.33946833   -1.29439483   -0.02070528
 C                  1.43073370   -3.26931112   -0.01954063
 C                  2.37223888   -4.29263429   -0.00889313
 C                 -0.42431096   -4.80235832    0.00655976
 C                  1.89149812   -5.61940806    0.01178196
 C                  0.49331902   -5.87409906    0.01957441
 H                  0.20169323   -0.32575018   -0.05423930
 H                 -0.15689290    1.53812421   -0.03968146
 Q                 -7.53420976    0.43948613   -0.01460678
 Q                 -0.13301802    8.15750996   -0.03224273
 Q                  7.58906198    0.79727108   -0.08958007
 Q                  0.15836885   -6.81621610    0.03453628
 R1                -4.80281380   -2.74016469   -0.02689673
 R1                -1.41120340   -4.96369393    0.01031955
 R1                 5.73886007   -0.78101766   -0.07739785
 R1                 1.42395772    6.29128665   -0.04594465
 R2                 2.53709667   -6.38303126    0.02084402
 R2                -7.10025620   -1.94339479   -0.01977584
 R2                -2.51582917    7.72406869   -0.02062747
 R2                 7.12705606    3.17490256   -0.08090962
 R3                 4.82102993    3.94518826   -0.06868939
 R3                -3.31642773    5.42879837   -0.02012898
 R3                -5.66641184    1.99624053   -0.02053076
 R3                 3.35265459   -4.09581231   -0.01568534


