# opt pbepbe/3-21g/auto geom=connectivity

phthalocyanine tetra(acetonide)

0 1
 C                  1.07595480    2.72148862    0.00000000
 C                  0.60957846    4.17968893    0.00000000
 C                 -1.14302574    2.70219957    0.00000000
 N                 -0.02653286    1.92487782    0.00000000
 C                  2.70219957    1.14302574    0.00000000
 N                  1.92487782    0.02653286    0.00000000
 C                  4.17968893   -0.60957846    0.00000000
 C                  2.72148862   -1.07595480    0.00000000
 C                 -2.72148862    1.07595480    0.00000000
 N                 -1.92487782   -0.02653286    0.00000000
 C                 -4.20107505   -0.72951643    0.00000000
 C                 -2.70219957   -1.14302574    0.00000000
 C                  1.14302574   -2.70219957    0.00000000
 N                  0.02653286   -1.92487782    0.00000000
 C                 -0.60957846   -4.17968893    0.00000000
 C                 -1.07595480   -2.72148862    0.00000000
 N                 -2.37836010    2.31649256    0.00000000
 N                  2.31649256    2.37836010    0.00000000
 N                  2.37836010   -2.31649256    0.00000000
 N                 -2.31649256   -2.37836010    0.00000000
 C                  4.20107505    0.72951643    0.00000000
 C                  5.34654091    1.44422910    0.00000000
 C                  5.40161852   -1.37049001    0.00000000
 C                  6.58431644    0.76997444    0.00000000
 C                  6.61223439   -0.64770902    0.00000000
 C                 -0.72951643    4.20107505    0.00000000
 C                 -1.44422910    5.34654091    0.00000000
 C                  1.37049001    5.40161852    0.00000000
 C                 -0.76997444    6.58431644    0.00000000
 C                  0.64770902    6.61223439    0.00000000
 C                 -4.17968893    0.60957846    0.00000000
 C                 -5.40161852    1.37049001    0.00000000
 C                 -6.61223439    0.64770902    0.00000000
 C                 -5.34654091   -1.44422910    0.00000000
 C                 -6.58431644   -0.76997444    0.00000000
 C                  0.72951643   -4.20107505    0.00000000
 C                  1.44422910   -5.34654091    0.00000000
 C                 -1.37049001   -5.40161852    0.00000000
 C                  0.76997444   -6.58431644    0.00000000
 C                 -0.64770902   -6.61223439    0.00000000
 H                 -0.01777167    0.92491620    0.00000000
 H                  0.01777167   -0.92491620    0.00000000
 Q                 -7.47425150    1.10644553    0.00000000
 Q                  1.10644553    7.47425150    0.00000000
 Q                  7.47425150   -1.10644553    0.00000000
 Q                 -1.10644553   -7.47425150    0.00000000
 R1                -5.26614764    2.36787984    0.00000000
 R1                -2.36787984   -5.26614764    0.00000000
 R1                 5.26614764   -2.36787984    0.00000000
 R1                 2.36787984    5.26614764    0.00000000
 R2                 1.27870606   -7.34112960    0.00000000
 R2                -7.34112960   -1.27870606    0.00000000
 R2                -1.27870606    7.34112960    0.00000000
 R2                 7.34112960    1.27870606    0.00000000
 R3                 5.32807948    2.49420584    0.00000000
 R3                -2.49420584    5.32807948    0.00000000
 R3                -5.32807948   -2.49420584    0.00000000
 R3                 2.49420584   -5.32807948    0.00000000


 1 2 1.0 4 1.5 18 2.0
 2 26 2.0 28 1.5 44 1.0
 3 4 1.5 17 2.0 26 1.0
 4 53 1.0
 5 6 1.5 18 1.5 21 1.0
 6 8 1.5
 7 8 1.0 21 2.0 23 1.5 43 1.0
 8 19 2.0
 9 10 1.5 17 1.5 31 1.0
 10 12 1.5
 11 12 1.0 31 2.0 34 1.5 41 1.0
 12 20 2.0
 13 14 1.5 19 1.5 36 1.5
 14 16 1.5 54 1.0
 15 16 1.5 36 2.0 38 1.5 42 1.0
 16 20 1.5
 17
 18
 19
 20
 21 22 1.5
 22 24 1.5 49 1.0
 23 25 1.5 43 1.0
 24 25 1.5 48 1.0
 25 43 1.0
 26 27 1.5
 27 29 1.5 50 1.0
 28 30 1.5 44 1.0
 29 30 1.5 47 1.0
 30 44 1.0
 31 32 1.5
 32 33 1.5 51 1.0
 33 35 1.5
 34 35 1.5 41 1.0
 35 41 1.0 46 1.0
 36 37 1.5
 37 39 1.5 52 1.0
 38 40 1.5 42 1.0
 39 40 1.5 45 1.0
 40 42 1.0
 41
 42
 43
 44
 45
 46
 47
 48
 49
 50
 51
 52
 53
 54

