# opt pbepbe/6-311g/auto

Title Card Required

0 2
 C                  0.51350000    0.00000000    0.00000000
 H                  0.91216838   -0.87110852    0.54296643
 H                  0.91216838   -0.03466846   -1.02588532
 H                  0.91216838    0.90577697    0.48291889
 R                  0.00000000    0.00000000    0.00000000

