# opt pbepbe/3-21g/auto

Title Card Required

0 2
 R                  0.00000000    0.00000000    0.00000000
 C                  1.01333288    1.24135211   -0.75308319
 H                  0.62864784    1.23718176   -1.75153201
 C                  2.55252474    1.21572353   -0.79588010
 C                  3.28392406    1.73020996   -1.95051781
 O                  3.17939261    2.53436253   -0.76335780
 H                  3.00969774    0.47532788   -0.11359215
 H                  2.75097538    2.15113651   -2.82315535
 H                  4.31333017    1.39233884   -2.17159675
 H                  0.68524575    2.12582723   -0.24814498
 O                  0.50000000    0.00000000    0.00000000
