# opt pbepbe/6-311g/auto

Title Card Required

0 1
 R                  0.00000000    0.00000000    0.00000000
 O                  0.42999962    0.00000040   -0.00057367
 C                  1.28354386    1.00590030   -0.68817130
 H                  0.98247474    1.43849989   -1.61936140
 H                  1.39778596    1.77821948    0.04351976
 C                  2.62446880    0.27149923   -0.87303710
 H                  2.50644761   -0.51047154   -1.59379553
 H                  2.93294535   -0.14842350    0.06152543
 C                  3.69127987    1.26692649   -1.36562080
 H                  4.61310462    0.74924924   -1.53039155
 H                  3.36534422    1.71507778   -2.28094936
 H                  3.83661634    2.02808023   -0.62777102
