# opt pbepbe/3-21g/auto

Title Card Required

0 1
 C                  0.13528831    1.38458595    0.00000000
 C                  1.30001799    0.59562859    0.00000000
 C                  1.15400354   -0.80881592    0.00000000
 C                 -1.25489581   -0.59434825    0.00000000
 C                 -1.15400354    0.80881592    0.00000000
 C                 -0.11161841   -1.42302273    0.00000000
 C                 -0.44659455   -2.83646378    0.00000000
 C                 -1.78080599   -3.06999617    0.00000000
 S                 -2.69260491   -1.57296715    0.00000000
 C                 -2.21059133    1.80563429    0.00000000
 C                 -1.74573059    3.07786149    0.00000000
 S                  0.00663403    3.11898801    0.00000000
 S                  2.72036692   -1.56459907    0.00000000
 C                  3.56093262   -0.02644353    0.00000000
 C                  2.69158192    1.01225127    0.00000000
 Q                 -2.26845651    3.93036228    0.00000000
 Q                 -2.25773038   -3.94894050    0.00000000
 Q                  4.56058293    0.00000000    0.00000000
 R1                -3.17527837    1.54223554    0.00000000
 R1                 0.26385898   -3.54020790    0.00000000
 R1                 2.94581544    1.97939414    0.00000000