# hf/3-21g geom=connectivity

Title Card Required

0 1
 C                  3.62526333   -2.76230215   -0.00899186
 C                  1.19766549   -1.36921094   -0.03235947
 C                 -1.19766549   -1.36921094    0.03235947
 C                  1.19766549    1.36921094    0.03235947
 C                  1.47660209    2.29868875    1.04655763
 C                 -1.47660209   -2.29868875    1.04655763
 C                  2.68727956    2.99282286    1.03472861
 C                 -2.68727956   -2.99282286    1.03472861
 C                 -3.62526333   -2.76230215    0.00899186
 C                  3.62526333    2.76230215    0.00899186
 C                  3.28885330    1.91524230   -1.03107919
 C                 -3.28885330   -1.91524230   -1.03107919
 C                  2.07922484    1.21939114   -1.02279140
 C                 -2.07922484   -1.21939114   -1.02279140
 C                 -3.62526333    2.76230215   -0.00899186
 C                 -2.68727956    2.99282286   -1.03472861
 C                  2.68727956   -2.99282286   -1.03472861
 C                 -1.47660209    2.29868875   -1.04655763
 C                  1.47660209   -2.29868875   -1.04655763
 C                 -1.19766549    1.36921094   -0.03235947
 C                 -2.07922484    1.21939114    1.02279140
 C                  2.07922484   -1.21939114    1.02279140
 C                 -3.28885330    1.91524230    1.03107919
 C                  3.28885330   -1.91524230    1.03107919
 C                  0.00000000   -0.67911957    0.00000000
 C                  0.00000000    0.67911957    0.00000000
 H                  0.77803768    2.44191978    1.86425047
 H                 -0.77803768   -2.44191978    1.86425047
 H                  2.93167213    3.66979275    1.84647044
 H                 -2.93167213   -3.66979275    1.84647044
 H                  4.00268945    1.75139354   -1.83123773
 H                 -4.00268945   -1.75139354   -1.83123773
 H                  1.85115306    0.52008650   -1.82044814
 H                 -1.85115306   -0.52008650   -1.82044814
 H                 -2.93167213    3.66979275   -1.84647044
 H                  2.93167213   -3.66979275   -1.84647044
 H                 -0.77803768    2.44191978   -1.86425047
 H                  0.77803768   -2.44191978   -1.86425047
 H                 -1.85115306    0.52008650    1.82044814
 H                  1.85115306   -0.52008650    1.82044814
 H                 -4.00268945    1.75139354    1.83123773
 H                  4.00268945   -1.75139354    1.83123773
 Q                 -4.48468782    3.27356438   -0.00995847
 Q                 -4.48468782   -3.27356438    0.00995847
 Q                  4.48468782   -3.27356438   -0.00995847
 Q                  4.48468782    3.27356438    0.00995847
