# opt pm6 geom=connectivity

Title Card Required

0 2
 C                  1.04370556   -0.98646728    0.00000000
 C                 -0.34381156   -1.36453444    0.00000000
 C                 -1.37615850   -0.41064189    0.00000000
 C                 -1.00981571    0.98001676    0.00000000
 C                  0.33245294    1.39710916    0.00000000
 C                  1.35362727    0.38451768    0.00000000
 C                 -2.81957709   -0.47560302    0.00000000
 C                 -3.29766927    0.88378773    0.00000000
 C                 -3.74653849   -1.52029901    0.00000000
 C                 -4.66047532    1.19208486    0.00000000
 C                 -5.10708038   -1.21018440    0.00000000
 C                 -5.55634155    0.12333939    0.00000000
 H                 -5.84073264   -2.01448407    0.00000000
 C                  1.82167284   -2.20402388    0.00000000
 C                  3.18988680   -2.48444800    0.00000000
 C                  0.88345201   -3.29775923    0.00000000
 C                  3.60159062   -3.81776915    0.00000000
 H                  3.91973985   -1.68130565    0.00000000
 C                  1.29786189   -4.63213245    0.00000000
 C                  2.67135573   -4.87360262    0.00000000
 C                  0.99790425    2.67962690    0.00000000
 C                  2.41421726    2.41397150    0.00000000
 C                  0.55665168    4.00474701    0.00000000
 C                  3.36261343    3.44004759    0.00000000
 C                  1.50548976    5.02795354    0.00000000
 H                 -0.50381652    4.23524711    0.00000000
 C                  2.88498581    4.75026324    0.00000000
 N                 -2.17576892    1.75673646    0.00000000
 H                 -2.21576601    2.75810130    0.00000000
 N                 -0.43349394   -2.76263939    0.00000000
 H                 -1.28070279   -3.29796030    0.00000000
 N                  2.60926286    1.00590293    0.00000000
 H                  3.49646880    0.53985900    0.00000000
 Q                 -6.53945676    0.30632702    0.00000000
 Q                  3.00444140   -5.81649919    0.00000000
 Q                  3.53501536    5.51017218    0.00000000
 R1                -4.98157707    2.13912957    0.00000000
 R1                 4.34332908    3.24460751    0.00000000
 R1                 0.63824799   -5.38373707    0.00000000
 R2                -3.44188850   -2.47276338    0.00000000
 R2                 4.57837554   -4.03199149    0.00000000
 R2                 1.20261929    5.98098527    0.00000000
