# opt pm6

Title Card Required

0 1
 C                 -1.03115652    0.98408708    0.00000000
 C                 -1.31970759   -0.49677449    0.00000000
 C                 -0.35042728   -1.43027184    0.00000000
 C                  1.03115652   -0.98408708    0.00000000
 C                  0.35042728    1.43027184    0.00000000
 C                 -2.20343267    1.68929997    0.00000000
 C                 -3.28768580    0.72247053    0.00000000
 C                  1.31970759    0.49677449    0.00000000
 C                  2.20343267   -1.68929997    0.00000000
 C                  3.28768580   -0.72247053    0.00000000
 C                  2.78463763    0.58741049    0.00000000
 C                  5.04992282    1.04700773    0.00000000
 C                 -2.78463763   -0.58741049    0.00000000
 C                 -5.04992282   -1.04700773    0.00000000
 S                 -4.99427728    0.69814803    0.00000000
 S                  4.99427728   -0.69814803    0.00000000
 C                 -3.79485144   -1.59230838    0.00000000
 C                  3.79485144    1.59230838    0.00000000
 Q                  5.92789150    1.52572581    0.00000000
 Q                 -5.92789150   -1.52572581    0.00000000
 R1                 3.59023513    2.57115064    0.00000000
 R1                -3.59023513   -2.57115064    0.00000000
 R2                 2.33018742   -2.68123405    0.00000000
 R2                -2.33018742    2.68123405    0.00000000
 R3                 0.53680428    2.41275014    0.00000000
 R3                -0.53680428   -2.41275014    0.00000000
