# hf/3-21g

Title Card Required

0 1
 C                  1.21383527    0.70080812    0.00000000
 C                  0.00000000    1.40161624    0.00000000
 C                 -1.21383527    0.70080812    0.00000000
 C                 -1.21383527   -0.70080812    0.00000000
 C                  0.00000000   -1.40161624    0.00000000
 C                  1.21383527   -0.70080812    0.00000000
 R1                 2.07986067    1.20080812    0.00000000
 R1                -2.07986067   -1.20080812    0.00000000
 R2                 2.07986067   -1.20080812    0.00000000
 R2                -2.07986067    1.20080812    0.00000000
 Q                  0.00000000    2.40161624    0.00000000
 Q                  0.00000000   -2.40161624    0.00000000

