# hf/3-21g geom=connectivity

Title Card Required

0 1
 C                  2.80796402    1.32929629    0.00000000
 C                  1.87914160    0.28945116    0.00000000
 C                  0.51322772    0.57464791    0.00000000
 C                  0.07805663    1.89914311    0.00000000
 C                  1.00779159    2.93924640    0.00000000
 C                  2.37229739    2.65433816    0.00000000
 C                 -0.51322772   -0.57464791    0.00000000
 C                 -1.87914160   -0.28945116    0.00000000
 C                 -0.07805663   -1.89914311    0.00000000
 C                 -2.80796402   -1.32929629    0.00000000
 C                 -1.00779159   -2.93924640    0.00000000
 C                 -2.37229739   -2.65433816    0.00000000
 Q                  3.03901252    3.39965079    0.00000000
 Q                 -3.03901252   -3.39965079    0.00000000
 R1                -0.69478944   -3.88899882    0.00000000
 R1                 0.69478944    3.88899882    0.00000000
 R2                 3.78683286    1.12480750    0.00000000
 R2                -3.78683286   -1.12480750    0.00000000
 R3                -0.90076655    2.10385036    0.00000000
 R3                 0.90076655   -2.10385036    0.00000000
 R4                 2.19183236   -0.66040368    0.00000000
 R4                -2.19183236    0.66040368    0.00000000

