# opt pm6 geom=connectivity

Title Card Required

0 1
 C                 -3.93988628   -0.92481247    0.00000563
 C                 -3.19300415    0.31257865   -0.00000270
 C                 -3.84215304    1.53174819    0.00000170
 C                 -5.25394214    1.53514063    0.00000681
 C                 -5.97498181    0.34497742    0.00000111
 C                 -5.32126507   -0.90640135    0.00000703
 C                 -2.99101181   -2.06711060   -0.00000745
 C                 -1.77621490   -0.04873989   -0.00000331
 C                 -1.74623108   -1.55444233   -0.00000482
 C                 -0.55317187    0.49562922   -0.00000304
 C                  0.55317186   -0.49562922   -0.00000253
 C                  1.77621490    0.04873989   -0.00000208
 C                  3.19300415   -0.31257865   -0.00000144
 C                  1.74623108    1.55444233   -0.00000122
 C                  3.93988629    0.92481248    0.00000205
 C                  3.84215304   -1.53174819    0.00000217
 C                  2.99101182    2.06711060   -0.00000040
 C                  5.32126507    0.90640135   -0.00000307
 C                  5.25394214   -1.53514064    0.00001344
 C                  5.97498181   -0.34497742    0.00000421
 S                 -0.09133557   -2.12911987   -0.00000325
 S                  0.09133557    2.12911987   -0.00000190
 Q                 -6.97470836    0.36836166   -0.00000601
 Q                  6.97470836   -0.36836167   -0.00001054
 R1                -5.73629576    2.41111721    0.00001896
 R1                 5.73629576   -2.41111723    0.00002127
 R2                -5.85342466   -1.75304541   -0.00000134
 R2                 5.85342466    1.75304541   -0.00001964
 R3                -3.33388758    2.39294864    0.00001177
 R3                 3.33388757   -2.39294864    0.00000973
 R4                -3.28610683   -3.02257851   -0.00000914
 R4                 3.28610684    3.02257851   -0.00000409
