# opt pm6

Title Card Required

0 1
 C                       4.07768879    1.96428069    0.00000000
 C                       2.75295063    1.53114825    0.00000000
 C                       2.47831777    0.14839873    0.00000000
 C                       3.52894535   -0.78584088    0.00000000
 C                       4.84958909   -0.32906924    0.00000000
 C                       5.12927236    1.03974843    0.00000000
 C                       0.68410659   -1.65414049    0.00000000
 C                       0.00000000    0.56565862    0.00000000
 C                      -0.68410659   -1.65414049    0.00000000
 N                       1.11071775   -0.28010673    0.00000000
 N                      -1.11071775   -0.28010673    0.00000000
 C                      -2.47831777    0.14839873    0.00000000
 C                      -3.52894535   -0.78584088    0.00000000
 C                      -2.75295063    1.53114825    0.00000000
 C                      -4.84958909   -0.32906924    0.00000000
 C                      -4.07768879    1.96428069    0.00000000
 C                      -5.12927236    1.03974843    0.00000000
 Q                       6.07689528    1.35913972    0.00000000
 Q                      -6.07689528    1.35913972    0.00000000
 R1                      5.59868511   -0.99153067    0.00000000
 R1                     -5.59868511   -0.99153067    0.00000000
 R2                      4.27617586    2.94438419    0.00000000
 R2                     -4.27617586    2.94438419    0.00000000
 R3                      3.34397405   -1.76858480    0.00000000
 R3                     -3.34397405   -1.76858480    0.00000000
 R4                      2.00129212    2.19070074    0.00000000
 R4                     -2.00129212    2.19070074    0.00000000
 R5                      1.32897939   -2.41843040    0.00000000
 R5                     -1.32897939   -2.41843040    0.00000000
