# hf/3-21g

Title Card Required

0 1
 C                 -1.63164327   -4.15048823    0.00000000
 C                 -0.24489100   -4.28644234    0.00000000
 C                  0.43656235   -2.89268756    0.00000000
 C                 -0.43488333   -1.93130919    0.00000000
 S                 -2.05997041   -2.57230749    0.00000000
 N                  1.83931619   -2.38906497    0.00000000
 C                  0.28211307   -0.61488182    0.00000000
 C                  1.76469220   -1.05464527    0.00000000
 C                 -0.28211307    0.61488182    0.00000000
 C                  0.43488333    1.93130919    0.00000000
 C                 -1.76469220    1.05464527    0.00000000
 C                 -0.43656235    2.89268756    0.00000000
 S                  2.05997041    2.57230749    0.00000000
 N                 -1.83931619    2.38906497    0.00000000
 C                  0.24489100    4.28644234    0.00000000
 C                  1.63164327    4.15048823    0.00000000
 O                  2.88630848   -0.16758445    0.00000000
 O                 -2.88630848    0.16758445    0.00000000
 C                  3.06477530   -3.20094550    0.00000000
 H                  3.63975398   -2.97885206   -0.87462793
 H                  3.63975398   -2.97885206    0.87462793
 H                  2.80494710   -4.23891731    0.00000000
 C                 -3.06477530    3.20094550    0.00000000
 H                 -3.63975398    2.97885206   -0.87462793
 H                 -3.63975398    2.97885206    0.87462793
 H                 -2.80494710    4.23891731    0.00000000
 Q                  2.27719857    4.91420175    0.00000000
 Q                 -2.27719857   -4.91420175    0.00000000
 R1                -0.24255102    5.15959769    0.00000000
 R1                 0.24255102   -5.15959769    0.00000000
