# freq rb3lyp/6-31g 

Title Card Required

0 1
 C                 -2.11903645    0.97435043    0.00000000
 C                 -0.90537489    1.59959855    0.00000000
 C                 -0.17942305   -0.66871765    0.00000000
 S                 -1.98008009   -0.83927782    0.00000000
 C                  0.17942305    0.66871765    0.00000000
 S                  1.98008009    0.83927782    0.00000000
 C                  0.90537489   -1.59959855    0.00000000
 C                  2.11903645   -0.97435043    0.00000000
 Q                 -3.03266816    1.38089328    0.00000000
 Q                  3.03266816   -1.38089328    0.00000000
 R1                -0.80075907    2.59411125    0.00000000
 R1                 0.80075907   -2.59411125    0.00000000

