# opt pbepbe/3-21g/auto

Title Card Required

0 2
 R                  0.00000000   -0.00000000   -0.00000000
 C                  2.40666159   -1.16585459    0.67854841
 H                  2.76575496   -1.15456900   -0.32933283
 C                  2.91930456   -2.43067770    1.39200456
 C                  4.14404829   -3.09759326    0.95835041
 O                  4.17337730   -2.24802259    2.11779275
 H                  2.14031464   -2.97671376    1.95567915
 H                  4.73417316   -2.71119796    0.10678653
 H                  4.32327489   -4.16541156    1.18274212
 H                  2.76137775   -0.29746193    1.19330139
 O                  0.97666624   -1.16702075    0.67509396
 C                  0.50000000   -0.00000000    0.00000000
 H                  0.85666720   -0.00085188   -1.00880513
 H                  0.85666663    0.87407686    0.50366513


