# opt pbepbe/3-21g/auto

Title Card Required

0 2
 R                  0.00000000    0.00000000    0.00000000
 C                  0.50000000    0.00000000    0.00000000
 C                  1.26650742   -1.29748618    0.01464625
 O                  1.15442391   -0.50743956   -1.20969954
 H                  0.97116458    0.91234102    0.38601539
 H                  0.74040966   -2.24926272   -0.01904488
 H                  2.27057069   -1.34572634    0.42774583

