# opt pbepbe/3-21g/auto

Title Card Required

0 2
 R                  0.00000000    0.00000000    0.00000000
 C                  0.50000000    0.00000000    0.00000000
 H                  0.90276646    0.81244059    0.64283602
 H                  0.89824019   -0.93180101    0.45878599
 C                  1.03131757    0.12803462   -1.41019595
 C                  1.36922386    1.47401912   -1.99095098
 O                  2.42116928    0.57573020   -1.51097067
 H                  0.79212167   -0.70426162   -2.08040498
 H                  1.25463162    2.38149024   -1.40440130
 H                  1.37253110    1.63125409   -3.06653736
