# opt pbepbe/6-311g/auto

Title Card Required

0 2
 R                  0.00000000    0.00000000    0.00000000
 O                  0.42999962    0.00000040   -0.00057367
 C                  1.28527197    1.05465446    0.60719018
 O                  2.50258459    0.63785254    0.36492457
 C                  1.06043989    2.37391343    1.36916545
 H                  2.00636455    2.80758054    1.61828267
 H                  0.50836159    3.05221924    0.75271531
 H                  0.51037909    2.17856809    2.26592255

