# hf/3-21g

Title Card Required

0 2
 B                 -0.00000000    1.33770000    0.00000000
 B                 -1.15848218   -0.66885000    0.00000000
 B                  1.15848218   -0.66885000    0.00000000
 O                 -0.00000000   -1.33770000    0.00000000
 O                  1.15848218    0.66885000    0.00000000
 O                 -1.15848218    0.66885000    0.00000000
 X                 -2.02450759   -1.16885000    0.00000000
 X                  0.00000000    2.33770000    0.00000000
 X                  2.02450759   -1.16885000    0.00000000

