# hf/3-21g

Title Card Required

0 2
 C                 -1.21155211    0.69931216    0.00000000
 C                 -1.21169445   -0.69956886    0.00000000
 C                  0.00015396   -1.39889098    0.00000000
 C                  1.21169163   -0.69957375    0.00000000
 C                  1.21139814    0.69957883    0.00000000
 C                  0.00000282    1.39914261    0.00000000
 C                  2.54926919   -1.47147404    0.00000000
 C                  2.56709067   -2.85677450    0.00000000
 C                  3.75790147   -0.79493839    0.00000000
 C                  3.78515749   -3.54955443    0.00000000
 C                  4.96720813   -1.50261666    0.00000000
 C                  4.97677209   -2.87302142    0.00000000
 C                 -2.54896849   -1.47199487    0.00000000
 C                 -3.75758462   -0.79477848    0.00000000
 C                 -2.56738757   -2.85696894    0.00000000
 C                 -4.96658305   -1.50326533    0.00000000
 C                 -3.78490827   -3.55042010    0.00000000
 C                 -4.97649558   -2.87350036    0.00000000
 C                 -0.00030070    2.94346890    0.00000000
 C                  1.19049395    3.65155298    0.00000000
 C                 -1.19051389    3.65190733    0.00000000
 C                  1.18142556    5.05281975    0.00000000
 C                 -1.18229986    5.05303676    0.00000000
 C                 -0.00027651    5.74652178    0.00000000
 Q                 -5.84265916   -3.37326084    0.00000000
 Q                  5.84265916   -3.37326083    0.00000000
 Q                 -0.00000000    6.74652167    0.00000000
 R1                -2.07759814    1.19927641    0.00000000
 R1                 2.07740290    1.19961456    0.00000000
 R1                 0.00019523   -2.39889097    0.00000000
 R2                -3.76321415    0.20520564    0.00000000
 R2                 1.70389378   -3.36164187    0.00000000
 R2                 2.05932037    3.15643623    0.00000000
 R3                -5.83552982   -1.00835983    0.00000000
 R3                 3.79103014   -4.54953715    0.00000000
 R3                 2.04449968    5.55789699    0.00000000
 R4                -2.04514815    5.55849971    0.00000000
 R4                -3.79122787   -4.55040011    0.00000000
 R4                 5.83637603   -1.00809960    0.00000000
 R5                -2.05941304    3.15691835    0.00000000
 R5                -1.70426497   -3.36196318    0.00000000
 R5                 3.76367800    0.20504483    0.00000000