# hf/3-21g

Title Card Required

0 1
 Q                  0.00000000    1.40161624    0.00000000
 Q                 -1.21383527   -0.70080812    0.00000000
 Q                  1.21383527   -0.70080812    0.00000000
 N                 -1.21383527    0.70080812    0.00000000
 N                  1.21383527    0.70080812    0.00000000
 N                  0.00000000   -1.40161624    0.00000000

