# opt pbepbe/6-311g/auto

Title Card Required

0 1
 Q                  0.00000000    0.00000000    0.00000000
 C                  0.38100000    0.00000000    0.00000000
 H                  0.40924527   -1.05919702    0.00000000
 X                  1.17860072    1.07502700    0.00000000
 C                  0.14695582    2.51329290    0.00000000
 N                 -0.52134025    3.44499668   -0.00000001

