# opt pbepbe/6-311g/auto

Title Card Required

0 2
 F                 -0.00000000   -0.00000000    0.00000000
 H                  0.44273015   -1.21196131   -0.00000000
 C                  0.39767850   -0.20913489   -0.00000000
 N                  1.63493355    0.58465345   -0.00000000
 X                  2.76685949    0.00000000    0.00000000
