# opt pbepbe/6-311g/auto

Title Card Required

0 1
 F                  0.00000000    0.00000000    0.00000000
 C                  0.45000000    0.00000000    0.00000000
 O                  0.93949639    1.12317482    0.00000000
 C                  1.34782492   -1.25120359    0.00000000
 H                  0.90492880   -2.22523799    0.00000000
 C                  2.69693210   -1.12284142    0.00000000
 H                  3.31556939   -1.99587515    0.00000000
 X                  3.26721116    0.11181716    0.00000000
 H                  2.85826022    1.07890512    0.00000000

