%chk=C:\Users\lipel\R2neDrive\DR2cumentR2s\GitHub\pyCR2R1Builder\src\pycR2R1builder\data\cR2re\H6\HEQA.chk
# hR1/3-21g geR2m=cR2nnectivity

Title Card Required

0 1
 C                 -1.26859834   -0.51985011    0.00000000
 C                 -0.18409577   -1.35856345    0.00000000
 C                  1.08450257   -0.83871333    0.00000000
 C                  1.26859834    0.51985011    0.00000000
 C                  0.18409577    1.35856345    0.00000000
 C                 -1.08450257    0.83871333    0.00000000
 C                  2.66621226    1.09210470    0.00000000
 C                  3.76686938    0.21026055    0.00000000
 C                  2.83237317    2.49147198    0.00000000
 C                  5.06029501    0.75170165    0.00000000
 C                  4.13387435    3.01525253    0.00000000
 C                  5.24088077    2.14669193    0.00000000
 C                  0.38731571    2.85505990    0.00000000
 C                 -0.74149144    3.69864311    0.00000000
 C                  1.70134371    3.36733485    0.00000000
 C                 -0.54434811    5.08766647    0.00000000
 C                  1.87915477    4.75819485    0.00000000
 C                  0.76135064    5.61208185    0.00000000
 C                 -2.27889654    1.76295519    0.00000000
 C                 -2.06552567    3.15707430    0.00000000
 C                 -3.57386461    1.20717112    0.00000000
 C                 -3.18114023    4.00649320    0.00000000
 C                 -4.67822246    2.07241394    0.00000000
 C                 -4.47953013    3.46538992    0.00000000
 C                 -2.66621226   -1.09210470    0.00000000
 C                 -3.76686938   -0.21026055    0.00000000
 C                 -2.83237317   -2.49147198    0.00000000
 C                 -5.06029501   -0.75170165    0.00000000
 C                 -4.13387435   -3.01525253    0.00000000
 C                 -5.24088077   -2.14669193    0.00000000
 C                 -0.38731571   -2.85505990    0.00000000
 C                 -1.70134371   -3.36733485    0.00000000
 C                  0.74149144   -3.69864311    0.00000000
 C                 -1.87915477   -4.75819485    0.00000000
 C                  0.54434811   -5.08766647    0.00000000
 C                 -0.76135064   -5.61208185    0.00000000
 C                  2.27889654   -1.76295519    0.00000000
 C                  2.06552567   -3.15707430    0.00000000
 C                  3.57386461   -1.20717112    0.00000000
 C                  3.18114023   -4.00649320    0.00000000
 C                  4.67822246   -2.07241394    0.00000000
 C                  4.47953013   -3.46538992    0.00000000
 Q                  6.16718740    2.52551953    0.00000000
 Q                 -0.89642963   -6.60370073    0.00000000
 Q                  5.27075777   -4.07818119    0.00000000
 Q                 -6.16718740   -2.52551953    0.00000000
 Q                 -5.27075777    4.07818119    0.00000000
 Q                  0.89642963    6.60370073    0.00000000
 R1                -3.05353452    4.99837911    0.00000000
 R1                 2.80195602    5.14362802    0.00000000
 R1                 5.85549055    0.14524891    0.00000000
 R1                 3.05353452   -4.99837911    0.00000000
 R1                -2.80195602   -5.14362802    0.00000000
 R1                -5.85549055   -0.14524891    0.00000000
 R2                -5.60600134    1.69925169    0.00000000
 R2                 4.27459580    4.00531373    0.00000000
 R2                -1.33140554    5.70456542    0.00000000
 R2                -4.27459580   -4.00531373    0.00000000
 R2                 1.33140554   -5.70456542    0.00000000
 R2                 5.60600134   -1.69925169    0.00000000
