%chk=C:\Users\lipel\OneDrive\Documentos\GitHub\pyCOFBuilder\src\pycofbuilder\data\core\H6\HEXA.chk
# hf/3-21g geom=connectivity

Title Card Required

0 1
 C                 -1.37167740    0.00000000    0.00000000
 C                 -0.68583870   -1.18790747    0.00000000
 C                  0.68583870   -1.18790747    0.00000000
 C                  1.37167740    0.00000000    0.00000000
 C                  0.68583870    1.18790747    0.00000000
 C                 -0.68583870    1.18790747    0.00000000
 C                  2.88178060   -0.00000000    0.00000000
 C                  3.56599195   -1.23235936    0.00000000
 C                  3.56599195    1.23235936   -0.00000000
 C                  4.96821651   -1.22291838    0.00000000
 C                  4.96821651    1.22291838   -0.00000000
 C                  5.66388064   -0.00000000    0.00000000
 C                  1.44089030    2.49569521    0.00000000
 C                  0.71574146    3.70441930   -0.00000000
 C                  2.85025049    2.47205994    0.00000000
 C                  1.42502987    4.91406090   -0.00000000
 C                  3.54318664    3.69114252    0.00000000
 C                  2.83194032    4.90506452    0.00000000
 C                 -1.44089030    2.49569521    0.00000000
 C                 -0.71574146    3.70441930    0.00000000
 C                 -2.85025049    2.47205994   -0.00000000
 C                 -1.42502987    4.91406090    0.00000000
 C                 -3.54318664    3.69114252   -0.00000000
 C                 -2.83194032    4.90506452    0.00000000
 C                 -2.88178060   -0.00000000    0.00000000
 C                 -3.56599195    1.23235936    0.00000000
 C                 -3.56599195   -1.23235936    0.00000000
 C                 -4.96821651    1.22291838    0.00000000
 C                 -4.96821651   -1.22291838    0.00000000
 C                 -5.66388064   -0.00000000    0.00000000
 C                 -1.44089030   -2.49569521    0.00000000
 C                 -2.85025049   -2.47205994    0.00000000
 C                 -0.71574146   -3.70441930    0.00000000
 C                 -3.54318664   -3.69114252    0.00000000
 C                 -1.42502987   -4.91406090    0.00000000
 C                 -2.83194032   -4.90506452    0.00000000
 C                  1.44089030   -2.49569521    0.00000000
 C                  0.71574146   -3.70441930    0.00000000
 C                  2.85025049   -2.47205994    0.00000000
 C                  1.42502987   -4.91406090    0.00000000
 C                  3.54318664   -3.69114252    0.00000000
 C                  2.83194032   -4.90506452    0.00000000
 X                  6.66388056   -0.00000000    0.00000000
 X                 -3.33194028   -5.77108985    0.00000000
 X                  3.33194028   -5.77108985    0.00000000
 X                 -6.66388056   -0.00000000    0.00000000
 X                 -3.33194028    5.77108985    0.00000000
 X                  3.33194028    5.77108985    0.00000000
 F                 -0.93070363    5.78333736    0.00000000
 F                  4.54316526    3.69768166    0.00000000
 F                  5.47386888   -2.08565569    0.00000000
 F                  0.93070363   -5.78333736    0.00000000
 F                 -4.54316526   -3.69768166    0.00000000
 F                 -5.47386888    2.08565569    0.00000000
 O                 -4.54316526    3.69768166   -0.00000000
 O                  5.47386888    2.08565569   -0.00000000
 O                  0.93070363    5.78333736   -0.00000000
 O                 -5.47386888   -2.08565569    0.00000000
 O                 -0.93070363   -5.78333736    0.00000000
 O                  4.54316526   -3.69768166    0.00000000
