%chk=C:\Users\R1pel\OneDrive\Documentos\GitHub\pyCOFBuilder\src\pycofbuilder\data\core\H6\IQA.chk
# hf/3-21g geom=connectivity

Title Card ReQuired

0 1
 C                 -1.26552666   -0.52902974    0.00000000
 C                 -0.17461013   -1.36049310    0.00000000
 C                  1.09091652   -0.83146336    0.00000000
 C                  1.26552666    0.52902974    0.00000000
 C                  0.17461013    1.36049310    0.00000000
 C                 -1.09091652    0.83146336    0.00000000
 C                  2.65887339    1.11139376    0.00000000
 C                  3.76543428    0.23825131    0.00000000
 C                  2.81487064    2.51229334    0.00000000
 C                  5.05553822    0.78775534    0.00000000
 C                  4.11225675    3.04437616    0.00000000
 C                  5.22574333    2.18436129    0.00000000
 C                  0.36694146    2.85834878    0.00000000
 C                 -0.76827453    3.69389616    0.00000000
 C                  1.67638545    3.38008740    0.00000000
 C                 -0.58037872    5.08350690    0.00000000
 C                  1.84555297    4.77210220    0.00000000
 C                  0.72115930    5.61780712    0.00000000
 C                 -2.29193193    1.74695502    0.00000000
 C                 -2.08904883    3.14183609    0.00000000
 C                 -3.58314518    1.18160282    0.00000000
 C                 -3.20998525    3.98434686    0.00000000
 C                 -4.69263547    2.03913073    0.00000000
 C                 -4.50458403    3.43344584    0.00000000
 C                 -2.65887339   -1.11139376    0.00000000
 C                 -3.76543428   -0.23825131    0.00000000
 C                 -2.81487064   -2.51229334    0.00000000
 C                 -5.05553822   -0.78775534    0.00000000
 C                 -4.11225675   -3.04437616    0.00000000
 C                 -5.22574333   -2.18436129    0.00000000
 C                 -0.36694146   -2.85834878    0.00000000
 C                 -1.67638545   -3.38008740    0.00000000
 C                  0.76827453   -3.69389616    0.00000000
 C                 -1.84555297   -4.77210220    0.00000000
 C                  0.58037872   -5.08350690    0.00000000
 C                 -0.72115930   -5.61780712    0.00000000
 C                  2.29193193   -1.74695502    0.00000000
 C                  2.08904883   -3.14183609    0.00000000
 C                  3.58314518   -1.18160282    0.00000000
 C                  3.20998525   -3.98434686    0.00000000
 C                  4.69263547   -2.03913073    0.00000000
 C                  4.50458403   -3.43344584    0.00000000
 C                 -5.72933601    4.36692788    0.00000000
 C                 -5.55163674    5.75072496    0.00000000
 C                 -7.01629823    3.82908368    0.00000000
 C                 -6.66070675    6.59641116    0.00000000
 C                 -8.12581202    4.67489031    0.00000000
 C                 -7.94823253    6.05836506    0.00000000
 C                  6.64653848    2.77828659    0.00000000
 C                  6.82423285    4.16175067    0.00000000
 C                  7.75609228    1.93249597    0.00000000
 C                  8.11147978    4.69971448    0.00000000
 C                  9.04301301    2.47013568    0.00000000
 C                  9.22081432    3.85418876    0.00000000
 C                  5.72933601   -4.36692788    0.00000000
 C                  5.55163674   -5.75072496    0.00000000
 C                  7.01629823   -3.82908368    0.00000000
 C                  6.66070675   -6.59641116    0.00000000
 C                  8.12581202   -4.67489031    0.00000000
 C                  7.94823253   -6.05836506    0.00000000
 C                 -0.91720247   -7.14521447    0.00000000
 C                 -2.20445554   -7.68322093    0.00000000
 C                  0.19206538   -7.99083435    0.00000000
 C                 -2.38230626   -9.06654683    0.00000000
 C                  0.01433225   -9.37460479    0.00000000
 C                 -1.27258178   -9.91255382    0.00000000
 C                 -6.64653848   -2.77828659    0.00000000
 C                 -7.75609228   -1.93249597    0.00000000
 C                 -6.82423285   -4.16175067    0.00000000
 C                 -9.04301301   -2.47013568    0.00000000
 C                 -8.11147978   -4.69971448    0.00000000
 C                 -9.22081432   -3.85418876    0.00000000
 C                  0.91720247    7.14521447    0.00000000
 C                  2.20445554    7.68322093    0.00000000
 C                 -0.19206538    7.99083435    0.00000000
 C                  2.38230626    9.06654683    0.00000000
 C                 -0.01433225    9.37460479    0.00000000
 C                  1.27258178    9.91255382    0.00000000
 Q                 10.14323928    4.24052837    0.00000000
 Q                  8.74402493   -6.66403871    0.00000000
 Q                  1.39921435   10.90456707    0.00000000
 Q                 -8.74402493    6.66403871    0.00000000
 Q                -10.14323928   -4.24052837    0.00000000
 Q                 -1.39921435  -10.90456707    0.00000000
 R1                 9.04843912   -4.28906764    0.00000000
 R1                 8.23866110    5.69164432    0.00000000
 R1                -0.80977802    9.98071196    0.00000000
 R1                -9.04843912    4.28906764    0.00000000
 R1                -8.23866110   -5.69164432    0.00000000
 R1                 0.80977802   -9.98071196    0.00000000
 R2                 9.83835946    1.86463802    0.00000000
 R2                 3.30435584    9.45258824    0.00000000
 R2                -6.53400362    7.58795022    0.00000000
 R2                -9.83835946   -1.86463802    0.00000000
 R2                -3.30435584   -9.45258824    0.00000000
 R2                 6.53400362   -7.58795022    0.00000000
 R3                 7.14390057   -2.83728420    0.00000000
 R3                 6.02911048    4.76815728    0.00000000
 R3                -1.11479009    7.60544148    0.00000000
 R3                -7.14390057    2.83728420    0.00000000
 R3                -6.02911048   -4.76815728    0.00000000
 R3                 1.11479009   -7.60544148    0.00000000
 R4                -2.99950320   -7.07677825    0.00000000
 R4                 4.62891815   -6.13603509    0.00000000
 R4                 7.62842134    0.94074316    0.00000000
 R4                 2.99950320    7.07677825    0.00000000
 R4                -4.62891815    6.13603509    0.00000000
 R4                -7.62842134   -0.94074316    0.00000000
 R5                -5.61773867    1.65944816    0.00000000
 R5                 4.24599360    4.03538032    0.00000000
 R5                -1.37174507    5.69482848    0.00000000
 R5                -4.24599360   -4.03538032    0.00000000
 R5                 1.37174507   -5.69482848    0.00000000
 R5                 5.61773867   -1.65944816    0.00000000
 R6                -3.08911703    4.97696400    0.00000000
 R6                 2.76561874    5.16373582    0.00000000
 R6                 5.85473577    0.18677182    0.00000000
 R6                 3.08911703   -4.97696400    0.00000000
 R6                -2.76561874   -5.16373582    0.00000000
 R6                -5.85473577   -0.18677182    0.00000000
